 ****** HSPICE -- D-2010.03-SP1 32-BIT (May 26 2010) winnt ******               
  Copyright (C) 2010 Synopsys, Inc. All Rights Reserved.                        
  Unpublished-rights reserved under US copyright laws.
  This program is protected by law and is subject to the 
  terms and conditions of the license agreement from Synopsys.
  Use of this program is your acceptance to be bound by the 
  license agreement. HSPICE is the trademark of Synopsys, Inc.
  Input File: c:\users\personal account\desktop\sim2\q1.sp                      
  lic:  
  lic: FLEXlm: v8.5b 
  lic: USER:   Personal Account     HOSTNAME: Personal-Account 
  lic: HOSTID: "8c164510c74c 74e5f9801d02 00ff2d13c27d 74e5f9801cfe 74e5f9801cff
  
  lic: Using FLEXlm license file: 
  lic: 27000@elena 
  lic: Checkout 1 hspice 
  lic: License/Maintenance for hspice will expire on 31-dec-2020/2007.9 
  lic: NODE LOCKED license on hostid "8c164510c74c 74e5f9801d02 00ff2d13c27d 74e
 5
  lic:   
 Init: read install configuration file: C:\synopsys\Hspice_D-2010.03-SP1\meta.cfg
1****** HSPICE -- D-2010.03-SP1 32-BIT (May 26 2010) winnt ******               
 ******  
 lab4 - arsalan firoozi 97102225

  ******  bjt   model parameters tnom=  25.000 temp=  25.000 *****

 ************************************************************************
 *** bjt model parameters   model name:   0:mynpn    model type:npn   ***
 ************************************************************************

     names  values   units     names  values   units     names  values   units
     -----  ------   -----     -----  ------   -----     -----  ------   -----

   1*** basic dc parameters ***
    level=   1.00                bf= 100.00                br=   1.00         
      brs=   0.                bulk=  gnd                  is= 1.0e-16 amps   
      iss=   0.    amps          nf=   1.00                nr=   1.00         
       ns=   1.00               ibe=   0.    amps         ibc=   0.    amps   
     subs=   1.00             expli=   0.    amps   

   2*** low current beta degradation effect parameters ***
      isc=   0.    amps         ise=   0.    amps          nc=   2.00         
       ne=   1.50         

   3*** base width modulation parameters ***
      vaf= 150.00  volts        var=   0.    volts  

   4*** high current beta degradation effect parameters ***
      ikf=   0.    amps         nkf= 500.00m              ikr=   0.    amps   

   5*** parasitic resistor parameters ***
      irb=   0.    amps          rb=   0.    ohms         rbm=   0.    ohms   
       re=   0.    ohms          rc=   0.    ohms         rcc=   0.    ohms   
       vo=   0.    volts      gamma=   0.           

   6*** junction capacitor parameters ***
     cbcp=   0.    farad       cbep=   0.    farad       ccsp=   0.    farad  
      cjc=   2.00p farad        cje=   2.00p farad        cjs=   2.50p farad  
       fc= 500.00m              mjc= 500.00m              mje= 500.00m        
      mjs= 500.00m              vjc= 750.00m volts        vje= 750.00m volts  
      vjs= 750.00m volts       xcjc=   1.00               qco=   0.    coul   

   7*** transit time parameters ***
      itf=   0.    amps         ptf=   0.    deg k         tf= 100.00p secs   
       tr=   0.    secs         vtf=   0.                 xtf=   0.           

   8*** temperature compensation parameters ***
     tlev=   0.               tlevc=   0.                tre1=   0.    /deg   
     tre2=   0.    /deg2       trb1=   0.    /deg        trc1=   0.    /deg   
     trb2=   0.    /deg2       trm1=   0.    /deg         xtb=   0.           
     trm2=   0.    /deg2        xti=   3.00               cte=   0.    /deg   
      ctc=   0.    /deg         cts=   0.    /deg        trc2=   0.    /deg2  
     tref=  25.00   deg c       bex=   2.42              bexv=   1.90         

   9*** noise parameters ***
       kf=   0.                  af=   1.00         
  **info** (c:\users\personal account\desktop\sim2\q1.sp:11) DC voltage reset to initial transient source value              in source        0:vid                 new dc=  0.0000D+00
 
      
 *****************************************************************
 ******  option summary
 ******
 runlvl  = 3         bypass  = 2         
1****** HSPICE -- D-2010.03-SP1 32-BIT (May 26 2010) winnt ******               
 ******  
 lab4 - arsalan firoozi 97102225

  ******  operating point information tnom=  25.000 temp=  25.000 *****
 ***** operating point status is all       simulation time is     0.     
    node    =voltage      node    =voltage      node    =voltage

 +0:1       =-269.8360u 0:2       =-753.4729m 0:3       =   0.     
 +0:4       = 774.0308m 0:5       =  -7.1630m 0:6       = -34.4894m
 +0:100     =  10.0000  0:200     = -10.0000 


 ****  voltage sources

 subckt                                   
 element  0:vcc      0:vee      0:vid     
  volts     10.0000   -10.0000     0.     
  current   -5.9702m    6.0000m   -5.3967u
  power     59.7020m   60.0000m    0.     

     total voltage source power dissipation=  119.7020m       watts



 ***** current sources

 subckt                        
 element  0:i1       0:i2      
  volts      9.2465     9.9655 
  current    1.0000m    5.0000m
  power     -9.2465m  -49.8276m


     total current source power dissipation= -59.0741m       watts

 **** resistors

 subckt                                                         
 element  0:r1       0:r2       0:r5       0:r3       0:r4      
  r value   20.0000k   50.0000     2.0000k    9.0000k    1.0000k
  v drop     9.2260   269.8360u  -34.4894m  -27.3263m   -7.1630m
  current  461.2985u    5.3967u  -17.2447u   -3.0363u   -7.1630u
  power      4.2559m    1.4562n  594.7580n   82.9699n   51.3088n


 **** bipolar junction transistors


 subckt                                   
 element  0:q1       0:q2       0:q3      
 model    0:mynpn    0:mynpn    0:mynpn   
  ib         5.3967u    4.1268u   46.4740u
  ic       575.6520u  414.8245u    4.9332m
  vbe      753.2030m  746.3099m  808.5201m
  vce       10.7535     1.5275    10.0345 
  vbc      -10.0003  -781.1938m   -9.2260 
  vs       -10.0000  -774.0308m  -10.0000 
  power      6.1943m  636.7257u   49.5402m
  betad    106.6668   100.5208   106.1506 
  gm        22.4024m   16.1434m  191.9850m
  rpi        4.7606k    6.2257k  552.8219 
  rx         0.         0.         0.     
  ro       277.9461k  363.4819k   32.2761k
  cpi        5.2449p    4.6097p   22.2796p
  cmu      528.2639f    1.3997p  548.3819f
  cbx        0.         0.         0.     
  ccs      660.3382f    1.7538p  660.3382f
  betaac   106.6497   100.5037   106.1335 
  ft       617.5943x  427.5451x    1.3385g



1****** HSPICE -- D-2010.03-SP1 32-BIT (May 26 2010) winnt ******               
 ******  
 lab4 - arsalan firoozi 97102225

  ******  fft analysis tnom=  25.000 temp=  25.000 *****
 fft components of transient response v(6)

 Window: Rectangular     

 DC: ON
 First Harmonic:   55.5556       
 Start Freq:   55.5556       
 Stop  Freq:   28.4444k      

 dc component: mag(dB)=  -5.080E+01  mag=   2.883E-03  phase=   1.800E+02

 frequency    frequency    fft_mag     fft_mag
    fft_phase
   index        (hz)        (dB)                    (deg)

     1        55.5556    -106.6308      4.6608u    177.5772 
     2       111.1111     -92.7414     23.0636u     12.4306 
     3       166.6667    -106.6286      4.6620u    172.7341 
     4       222.2222    -100.4661      9.4775u    160.5184 
     5       277.7778    -106.6243      4.6643u    167.8982 
     6       333.3333    -105.7670      5.1482u    115.4319 
     7       388.8889    -106.6181      4.6676u    163.0743 
     8       444.4444    -108.3758      3.8125u    171.2599 
     9       500.0000    -106.6101      4.6719u    158.2672 
    10       555.5556    -105.4800      5.3211u    132.2680 
    11       611.1111    -106.6007      4.6770u    153.4817 
    12       666.6667    -113.8715      2.0250u     55.8683 
    13       722.2222    -106.5901      4.6827u    148.7224 
    14       777.7778    -106.2672      4.8601u    163.4312 
    15       833.3333    -106.5787      4.6888u    143.9935 
    16       888.8889     -89.7461     32.5607u     34.6100 
    17       944.4444    -106.5669      4.6952u    139.2992 
    18         1.0000k      0.          1.0000     -90.0840 
    19         1.0556k   -106.5549      4.7017u    134.6428 
    20         1.1111k    -87.8238     40.6267u     76.4128 
    21         1.1667k   -106.5433      4.7080u    130.0274 
    22         1.2222k   -102.3235      7.6529u   -157.7815 
    23         1.2778k   -106.5323      4.7139u    125.4552 
    24         1.3333k   -106.9627      4.4861u    154.3612 
    25         1.3889k   -106.5227      4.7192u    120.9283 
    26         1.4444k   -112.5281      2.3637u     94.4728 
    27         1.5000k   -106.5148      4.7234u    116.4481 
    28         1.5556k   -105.7612      5.1516u    122.9565 
    29         1.6111k   -106.5094      4.7264u    112.0162 
    30         1.6667k   -102.9315      7.1355u     85.5651 
    31         1.7222k   -106.5072      4.7276u    107.6340 
    32         1.7778k   -105.4199      5.3580u    175.2985 
    33         1.8333k   -106.5089      4.7266u    103.3033 
    34         1.8889k    -92.2049     24.5334u     74.7371 
    35         1.9444k   -106.5152      4.7232u     99.0260 
    36         2.0000k    -31.2391     27.4184m   -179.6321 
    37         2.0556k   -106.5268      4.7169u     94.8043 
    38         2.1111k    -91.8476     25.5634u    125.5354 
    39         2.1667k   -106.5443      4.7074u     90.6406 
    40         2.2222k    -99.0225     11.1911u    -19.4680 
    41         2.2778k   -106.5683      4.6945u     86.5370 
    42         2.3333k   -104.9952      5.6265u     44.2788 
    43         2.3889k   -106.5992      4.6778u     82.4957 
    44         2.4444k   -102.6985      7.3295u     67.3397 
    45         2.5000k   -106.6377      4.6571u     78.5189 
    46         2.5556k   -114.2206      1.9452u     60.2694 
    47         2.6111k   -106.6841      4.6323u     74.6086 
    48         2.6667k   -111.0500      2.8022u     78.5956 
    49         2.7222k   -106.7391      4.6031u     70.7668 
    50         2.7778k   -101.0548      8.8564u    -26.7852 
    51         2.8333k   -106.8029      4.5693u     66.9959 
    52         2.8889k   -101.4200      8.4918u    113.3252 
    53         2.9444k   -106.8762      4.5310u     63.2986 
    54         3.0000k    -32.7114     23.1435m    -91.5122 
    55         3.0556k   -106.9594      4.4878u     59.6778 
    56         3.1111k    -94.0615     19.8119u    151.1807 
    57         3.1667k   -107.0528      4.4398u     56.1369 
    58         3.2222k   -101.3075      8.6025u     50.1549 
    59         3.2778k   -107.1568      4.3869u     52.6797 
    60         3.3333k   -112.0452      2.4989u    108.6517 
    61         3.3889k   -107.2719      4.3292u     49.3104 
    62         3.4444k   -104.5365      5.9316u     55.0835 
    63         3.5000k   -107.3982      4.2667u     46.0338 
    64         3.5556k   -104.2093      6.1594u      4.4329 
    65         3.6111k   -107.5361      4.1995u     42.8552 
    66         3.6667k   -101.7800      8.1470u     44.4455 
    67         3.7222k   -107.6858      4.1277u     39.7807 
    68         3.7778k    -96.5526     14.8720u     29.0468 
    69         3.8333k   -107.8474      4.0517u     36.8172 
    70         3.8889k    -97.0855     13.9870u   -100.0739 
    71         3.9444k   -108.0209      3.9715u     33.9723 
    72         4.0000k    -35.3527     17.0752m     -3.0177 
    73         4.0556k   -108.2063      3.8876u     31.2549 
    74         4.1111k    -96.7120     14.6017u    -97.4002 
    75         4.1667k   -108.4033      3.8004u     28.6742 
    76         4.2222k   -102.9183      7.1464u    -15.5516 
    77         4.2778k   -108.6116      3.7104u     26.2405 
    78         4.3333k   -104.6063      5.8842u    -24.6868 
    79         4.3889k   -108.8305      3.6181u     23.9649 
    80         4.4444k   -110.7459      2.9021u     48.6757 
    81         4.5000k   -109.0593      3.5240u     21.8595 
    82         4.5556k   -107.8334      4.0582u      9.7962 
    83         4.6111k   -109.2968      3.4289u     19.9372 
    84         4.6667k   -111.5866      2.6343u    172.3866 
    85         4.7222k   -109.5419      3.3335u     18.2125 
    86         4.7778k   -101.7898      8.1379u     48.7770 
    87         4.8333k   -109.7925      3.2387u     16.7009 
    88         4.8889k    -93.6189     20.8475u   -107.8303 
    89         4.9444k   -110.0464      3.1454u     15.4186 
    90         5.0000k    -38.8550     11.4091m     84.8056 
    91         5.0556k   -110.3004      3.0548u     14.3818 
    92         5.1111k    -90.8833     28.5652u    -82.8098 
    93         5.1667k   -110.5505      2.9681u     13.6057 
    94         5.2222k   -102.1257      7.8292u     43.0041 
    95         5.2778k   -110.7920      2.8867u     13.1025 
    96         5.3333k   -104.3787      6.0404u     15.4586 
    97         5.3889k   -111.0191      2.8122u     12.8799 
    98         5.4444k   -110.2266      3.0808u    -14.2703 
    99         5.5000k   -111.2253      2.7462u     12.9390 
   100         5.5556k   -106.7946      4.5737u      5.0770 
   101         5.6111k   -111.4034      2.6905u     13.2719 
   102         5.6667k   -104.0816      6.2506u    -29.5150 
   103         5.7222k   -111.5460      2.6467u     13.8605 
   104         5.7778k   -106.8290      4.5556u     74.8557 
   105         5.8333k   -111.6459      2.6164u     14.6740 
   106         5.8889k    -87.3442     42.9328u    -90.4465 
   107         5.9444k   -111.6963      2.6013u     15.6696 
   108         6.0000k    -43.5974      6.6089m    178.3501 
   109         6.0556k   -111.6921      2.6025u     16.7924 
   110         6.1111k    -87.3184     43.0608u    -21.8067 
   111         6.1667k   -111.6300      2.6212u     17.9782 
   112         6.2222k   -103.6904      6.5385u    126.1815 
   113         6.2778k   -111.5091      2.6579u     19.1580 
   114         6.3333k   -106.8963      4.5205u     54.5843 
   115         6.3889k   -111.3310      2.7130u     20.2634 
   116         6.4444k   -117.2630      1.3704u    -22.2025 
   117         6.5000k   -111.0999      2.7861u     21.2314 
   118         6.5556k   -107.5470      4.1942u     51.6271 
   119         6.6111k   -110.8218      2.8768u     22.0097 
   120         6.6667k   -104.4707      5.9768u     12.5718 
   121         6.7222k   -110.5040      2.9840u     22.5590 
   122         6.7778k   -107.3076      4.3114u     75.2621 
   123         6.8333k   -110.1544      3.1066u     22.8539 
   124         6.8889k    -85.6178     52.3730u      5.9503 
   125         6.9444k   -109.7808      3.2431u     22.8818 
   126         7.0000k    -51.7669      2.5802m    -75.2976 
   127         7.0556k   -109.3905      3.3921u     22.6415 
   128         7.1111k    -93.4012     21.3768u     46.9186 
   129         7.1667k   -108.9899      3.5523u     22.1400 
   130         7.2222k   -105.4677      5.3286u   -101.0786 
   131         7.2778k   -108.5843      3.7221u     21.3903 
   132         7.3333k   -107.2327      4.3488u     19.2842 
   133         7.3889k   -108.1783      3.9002u     20.4089 
   134         7.4444k   -105.4434      5.3435u    -14.9174 
   135         7.5000k   -107.7751      4.0855u     19.2138 
   136         7.5556k   -109.2273      3.4565u     58.2551 
   137         7.6111k   -107.3774      4.2769u     17.8233 
   138         7.6667k   -104.9150      5.6787u     32.6856 
   139         7.7222k   -106.9872      4.4734u     16.2549 
   140         7.7778k   -101.7072      8.2156u   -164.9138 
   141         7.8333k   -106.6059      4.6742u     14.5247 
   142         7.8889k    -87.2690     43.3064u    101.0641 
   143         7.9444k   -106.2347      4.8783u     12.6476 
   144         8.0000k    -57.5896      1.3198m    155.3385 
   145         8.0556k   -105.8743      5.0849u     10.6374 
   146         8.1111k    -92.7445     23.0555u     46.0146 
   147         8.1667k   -105.5254      5.2933u      8.5065 
   148         8.2222k    -99.2110     10.9509u      8.2562 
   149         8.2778k   -105.1883      5.5028u      6.2666 
   150         8.3333k   -103.1715      6.9410u     35.7261 
   151         8.3889k   -104.8633      5.7126u      3.9287 
   152         8.4444k   -102.6525      7.3684u      1.1950 
   153         8.5000k   -104.5504      5.9222u      1.5025 
   154         8.5556k   -104.3577      6.0550u    -12.7973 
   155         8.6111k   -104.2496      6.1309u     -1.0029 
   156         8.6667k   -101.4275      8.4845u     -2.5823 
   157         8.7222k   -103.9606      6.3382u     -3.5798 
   158         8.7778k    -96.0385     15.7789u    -53.5891 
   159         8.8333k   -103.6834      6.5438u     -6.2212 
   160         8.8889k    -94.4245     19.0010u     30.8563 
   161         8.9444k   -103.4176      6.7471u     -8.9213 
   162         9.0000k    -52.1302      2.4745m    -98.1314 
   163         9.0556k   -103.1630      6.9479u    -11.6748 
   164         9.1111k    -94.0751     19.7808u    129.1569 
   165         9.1667k   -102.9193      7.1456u    -14.4770 
   166         9.2222k   -103.6934      6.5363u    -11.9633 
   167         9.2778k   -102.6863      7.3398u    -17.3236 
   168         9.3333k   -105.5644      5.2696u    -53.2964 
   169         9.3889k   -102.4637      7.5304u    -20.2107 
   170         9.4444k   -100.6052      9.3269u     -7.8408 
   171         9.5000k   -102.2512      7.7168u    -23.1346 
   172         9.5556k   -101.5927      8.3246u    -15.6277 
   173         9.6111k   -102.0486      7.8990u    -26.0921 
   174         9.6667k   -103.9813      6.3232u      3.7229 
   175         9.7222k   -101.8555      8.0765u    -29.0803 
   176         9.7778k    -94.9493     17.8870u    -25.1318 
   177         9.8333k   -101.6715      8.2494u    -32.0970 
   178         9.8889k    -87.0685     44.3174u     70.5657 
   179         9.9444k   -101.4964      8.4174u    -35.1402 
   180        10.0000k    -53.9062      2.0169m     -9.2755 
   181        10.0556k   -101.3299      8.5803u    -38.2085 
   182        10.1111k    -99.7274     10.3188u    -89.9233 
   183        10.1667k   -101.1718      8.7380u    -41.3006 
   184        10.2222k    -96.4734     15.0082u    -19.8051 
   185        10.2778k   -101.0217      8.8903u    -44.4152 
   186        10.3333k    -99.1919     10.9750u    -55.7458 
   187        10.3889k   -100.8795      9.0370u    -47.5513 
   188        10.4444k   -103.3630      6.7897u    -43.4650 
   189        10.5000k   -100.7450      9.1780u    -50.7080 
   190        10.5556k    -99.5690     10.5087u    -56.8279 
   191        10.6111k   -100.6180      9.3132u    -53.8844 
   192        10.6667k    -99.8289     10.1990u    -82.3528 
   193        10.7222k   -100.4983      9.4424u    -57.0799 
   194        10.7778k    -95.4778     16.8310u      3.5919 
   195        10.8333k   -100.3858      9.5656u    -60.2940 
   196        10.8889k    -85.4383     53.4671u    165.9203 
   197        10.9444k   -100.2802      9.6825u    -63.5262 
   198        11.0000k    -57.5201      1.3304m     86.0973 
   199        11.0556k   -100.1816      9.7931u    -66.7760 
   200        11.1111k    -93.9136     20.1522u    -89.1731 
   201        11.1667k   -100.0896      9.8973u    -70.0430 
   202        11.2222k   -102.6832      7.3424u     -5.5288 
   203        11.2778k   -100.0044      9.9949u    -73.3265 
   204        11.3333k    -98.0285     12.5479u    -67.7400 
   205        11.3889k    -99.9256     10.0860u    -76.6260 
   206        11.4444k   -100.7795      9.1416u    -66.1809 
   207        11.5000k    -99.8533     10.1704u    -79.9409 
   208        11.5556k    -99.1518     11.0258u    -63.3967 
   209        11.6111k    -99.7871     10.2481u    -83.2708 
   210        11.6667k    -97.3659     13.5427u    -80.0663 
   211        11.7222k    -99.7270     10.3193u    -86.6157 
   212        11.7778k   -105.7317      5.1691u    -62.5316 
   213        11.8333k    -99.6728     10.3839u    -89.9755 
   214        11.8889k    -81.1421     87.6784u    -86.1565 
   215        11.9444k    -99.6243     10.4420u    -93.3504 
   216        12.0000k    -71.5744    263.8031u   -177.6104 
   217        12.0556k    -99.5815     10.4936u    -96.7408 
   218        12.1111k    -90.6631     29.2986u    -57.2830 
   219        12.1667k    -99.5443     10.5387u   -100.1468 
   220        12.2222k    -98.4234     11.9903u   -130.5378 
   221        12.2778k    -99.5125     10.5773u   -103.5686 
   222        12.3333k    -99.8816     10.1372u    -96.1012 
   223        12.3889k    -99.4863     10.6093u   -107.0063 
   224        12.4444k    -99.4008     10.7142u   -117.7605 
   225        12.5000k    -99.4654     10.6348u   -110.4599 
   226        12.5556k   -101.4927      8.4210u   -112.5514 
   227        12.6111k    -99.4499     10.6539u   -113.9293 
   228        12.6667k    -99.1358     11.0462u   -102.5496 
   229        12.7222k    -99.4396     10.6665u   -117.4146 
   230        12.7778k   -104.4247      6.0085u     25.9539 
   231        12.8333k    -99.4344     10.6728u   -120.9159 
   232        12.8889k    -85.1107     55.5223u     13.0609 
   233        12.9444k    -99.4344     10.6728u   -124.4332 
   234        13.0000k    -67.4932    422.0277u     84.7604 
   235        13.0556k    -99.4394     10.6667u   -127.9665 
   236        13.1111k    -93.9626     20.0387u    -46.7517 
   237        13.1667k    -99.4494     10.6545u   -131.5160 
   238        13.2222k    -98.4313     11.9794u   -110.1794 
   239        13.2778k    -99.4642     10.6363u   -135.0818 
   240        13.3333k   -103.8540      6.4165u   -128.2832 
   241        13.3889k    -99.4838     10.6123u   -138.6638 
   242        13.4444k    -99.0506     11.1550u   -127.9451 
   243        13.5000k    -99.5082     10.5826u   -142.2621 
   244        13.5556k    -99.0600     11.1429u   -149.4465 
   245        13.6111k    -99.5371     10.5474u   -145.8768 
   246        13.6667k   -101.4458      8.4666u   -131.1055 
   247        13.7222k    -99.5705     10.5069u   -149.5081 
   248        13.7778k    -93.9426     20.0849u    178.7681 
   249        13.8333k    -99.6084     10.4611u   -153.1561 
   250        13.8889k    -90.1785     30.9794u    171.2006 
   251        13.9444k    -99.6506     10.4104u   -156.8209 
   252        14.0000k    -65.4232    535.6001u    176.8337 
   253        14.0556k    -99.6971     10.3549u   -160.5027 
   254        14.1111k    -93.6328     20.8141u     19.0082 
   255        14.1667k    -99.7476     10.2948u   -164.2015 
   256        14.2222k    -99.1341     11.0483u   -176.2744 
   257        14.2778k    -99.8022     10.2303u   -167.9173 
   258        14.3333k    -99.5692     10.5085u    169.6778 
   259        14.3889k    -99.8607     10.1617u   -171.6500 
   260        14.4444k   -101.3466      8.5639u   -156.1615 
   261        14.5000k    -99.9229     10.0891u   -175.3997 
   262        14.5556k   -100.8517      9.0659u   -175.2550 
   263        14.6111k    -99.9887     10.0130u   -179.1666 
   264        14.6667k   -105.5201      5.2966u    149.1937 
   265        14.7222k   -100.0579      9.9336u    177.0490 
   266        14.7778k    -96.4954     14.9704u   -135.5661 
   267        14.8333k   -100.1303      9.8511u    173.2468 
   268        14.8889k    -93.8150     20.3821u     -9.7597 
   269        14.9444k   -100.2059      9.7657u    169.4264 
   270        15.0000k    -62.8124    723.4051u   -108.0774 
   271        15.0556k   -100.2844      9.6779u    165.5876 
   272        15.1111k    -95.0767     17.6265u    139.9048 
   273        15.1667k   -100.3658      9.5876u    161.7303 
   274        15.2222k   -102.2804      7.6910u   -162.4518 
   275        15.2778k   -100.4498      9.4954u    157.8544 
   276        15.3333k    -99.8461     10.1787u    157.4288 
   277        15.3889k   -100.5362      9.4013u    153.9597 
   278        15.4444k   -102.4864      7.5107u    138.1498 
   279        15.5000k   -100.6250      9.3057u    150.0463 
   280        15.5556k    -99.0812     11.1158u    149.4076 
   281        15.6111k   -100.7158      9.2089u    146.1138 
   282        15.6667k    -99.5881     10.4857u    131.9707 
   283        15.7222k   -100.8085      9.1112u    142.1620 
   284        15.7778k   -107.5395      4.1978u    -64.5621 
   285        15.8333k   -100.9028      9.0128u    138.1903 
   286        15.8889k    -81.2045     87.0509u     79.8968 
   287        15.9444k   -100.9986      8.9140u    134.1983 
   288        16.0000k    -62.6002    741.2890u    -38.3827 
   289        16.0556k   -101.0957      8.8149u    130.1855 
   290        16.1111k   -100.9852      8.9277u     79.4772 
   291        16.1667k   -101.1940      8.7157u    126.1518 
   292        16.2222k    -99.8440     10.1813u     78.3732 
   293        16.2778k   -101.2934      8.6165u    122.0971 
   294        16.3333k   -102.7337      7.2999u    128.8959 
   295        16.3889k   -101.3937      8.5175u    118.0215 
   296        16.4444k   -101.7767      8.1501u    112.6049 
   297        16.5000k   -101.4949      8.4189u    113.9255 
   298        16.5556k   -106.4651      4.7506u    111.4687 
   299        16.6111k   -101.5968      8.3207u    109.8095 
   300        16.6667k   -101.9749      7.9663u    109.1936 
   301        16.7222k   -101.6992      8.2232u    105.6741 
   302        16.7778k   -100.2056      9.7660u     78.4007 
   303        16.8333k   -101.8020      8.1264u    101.5197 
   304        16.8889k    -81.5195     83.9507u   -171.8717 
   305        16.9444k   -101.9052      8.0305u     97.3472 
   306        17.0000k    -74.2057    194.8561u      6.2418 
   307        17.0556k   -102.0084      7.9356u     93.1575 
   308        17.1111k    -93.8601     20.2766u    150.3060 
   309        17.1667k   -102.1117      7.8418u     88.9517 
   310        17.2222k    -98.5126     11.8678u     84.9966 
   311        17.2778k   -102.2148      7.7492u     84.7308 
   312        17.3333k   -107.1489      4.3909u     62.8251 
   313        17.3889k   -102.3177      7.6579u     80.4964 
   314        17.4444k    -99.8093     10.2220u     74.9890 
   315        17.5000k   -102.4203      7.5681u     76.2497 
   316        17.5556k   -100.7729      9.1486u     58.7355 
   317        17.6111k   -102.5222      7.4798u     71.9922 
   318        17.6667k   -105.8625      5.0918u     87.9358 
   319        17.7222k   -102.6234      7.3931u     67.7252 
   320        17.7778k   -103.2101      6.9103u     22.8396 
   321        17.8333k   -102.7239      7.3081u     63.4500 
   322        17.8889k    -80.4087     95.4036u    -35.4073 
   323        17.9444k   -102.8234      7.2249u     59.1679 
   324        18.0000k    -71.1941    275.6085u     13.1188 
   325        18.0556k   -102.9219      7.1434u     54.8805 
   326        18.1111k   -101.0773      8.8336u   -112.0882 
   327        18.1667k   -103.0194      7.0636u     50.5894 
   328        18.2222k   -106.9055      4.5157u     48.7820 
   329        18.2778k   -103.1159      6.9856u     46.2962 
   330        18.3333k   -102.7565      7.2808u     18.5601 
   331        18.3889k   -103.2113      6.9093u     42.0027 
   332        18.4444k   -105.3178      5.4214u     61.2692 
   333        18.5000k   -103.3056      6.8347u     37.7108 
   334        18.5556k   -101.7857      8.1417u     29.0639 
   335        18.6111k   -103.3988      6.7618u     33.4223 
   336        18.6667k   -104.8897      5.6953u     -9.5039 
   337        18.7222k   -103.4909      6.6905u     29.1390 
   338        18.7778k    -93.1760     21.9381u     39.2902 
   339        18.8333k   -103.5819      6.6207u     24.8627 
   340        18.8889k    -89.1137     35.0198u     14.1646 
   341        18.9444k   -103.6720      6.5524u     20.5950 
   342        19.0000k    -71.1798    276.0631u     84.8978 
   343        19.0556k   -103.7610      6.4856u     16.3376 
   344        19.1111k    -93.2585     21.7308u    -26.4075 
   345        19.1667k   -103.8493      6.4200u     12.0922 
   346        19.2222k    -99.1761     10.9950u    740.0487m
   347        19.2778k   -103.9367      6.3557u      7.8605 
   348        19.3333k   -100.4606      9.4835u      8.5770 
   349        19.3889k   -104.0235      6.2926u      3.6439 
   350        19.4444k   -103.9303      6.3604u    -11.3965 
   351        19.5000k   -104.1097      6.2304u   -555.9974m
   352        19.5556k   -103.5699      6.6298u     -5.5549 
   353        19.6111k   -104.1955      6.1692u     -4.7379 
   354        19.6667k   -101.3122      8.5978u    -27.1373 
   355        19.7222k   -104.2810      6.1087u     -8.9005 
   356        19.7778k   -103.4514      6.7209u    139.4049 
   357        19.8333k   -104.3663      6.0490u    -13.0427 
   358        19.8889k    -85.3299     54.1385u    -48.6107 
   359        19.9444k   -104.4517      5.9898u    -17.1635 
   360        20.0000k    -68.7220    366.3547u    136.2735 
   361        20.0556k   -104.5374      5.9310u    -21.2619 
   362        20.1111k   -101.5822      8.3347u     26.8169 
   363        20.1667k   -104.6235      5.8726u    -25.3369 
   364        20.2222k   -105.2911      5.4381u   -106.9062 
   365        20.2778k   -104.7102      5.8142u    -29.3877 
   366        20.3333k   -106.2916      4.8464u     -2.4930 
   367        20.3889k   -104.7978      5.7559u    -33.4134 
   368        20.4444k   -102.7463      7.2893u    -38.6274 
   369        20.5000k   -104.8864      5.6974u    -37.4133 
   370        20.5556k   -105.7210      5.1755u    -19.9160 
   371        20.6111k   -104.9764      5.6387u    -41.3867 
   372        20.6667k   -102.0918      7.8598u    -12.6844 
   373        20.7222k   -105.0679      5.5796u    -45.3330 
   374        20.7778k    -98.5066     11.8760u    -65.9933 
   375        20.8333k   -105.1611      5.5201u    -49.2517 
   376        20.8889k    -83.9558     63.4174u     27.3807 
   377        20.9444k   -105.2563      5.4599u    -53.1420 
   378        21.0000k    -71.2557    273.6636u   -145.2966 
   379        21.0556k   -105.3538      5.3990u    -57.0035 
   380        21.1111k    -96.3062     15.2999u    -45.7587 
   381        21.1667k   -105.4536      5.3373u    -60.8356 
   382        21.2222k    -96.5213     14.9257u    -59.0401 
   383        21.2778k   -105.5561      5.2746u    -64.6379 
   384        21.3333k   -111.6269      2.6221u    -53.1882 
   385        21.3889k   -105.6615      5.2110u    -68.4100 
   386        21.4444k   -104.5929      5.8933u    -68.9421 
   387        21.5000k   -105.7699      5.1464u    -72.1518 
   388        21.5556k   -103.1023      6.9965u   -113.6265 
   389        21.6111k   -105.8815      5.0807u    -75.8631 
   390        21.6667k   -108.7486      3.6523u    -45.9280 
   391        21.7222k   -105.9967      5.0138u    -79.5440 
   392        21.7778k   -100.1474      9.8317u    -86.0595 
   393        21.8333k   -106.1156      4.9456u    -83.1943 
   394        21.8889k    -82.0280     79.1773u    115.3378 
   395        21.9444k   -106.2386      4.8761u    -86.8139 
   396        22.0000k    -74.3594    191.4380u    -55.4485 
   397        22.0556k   -106.3659      4.8051u    -90.4024 
   398        22.1111k    -99.4787     10.6186u     52.8804 
   399        22.1667k   -106.4979      4.7327u    -93.9592 
   400        22.2222k   -109.0004      3.5480u    -40.2169 
   401        22.2778k   -106.6348      4.6587u    -97.4833 
   402        22.3333k   -107.4490      4.2418u   -107.4607 
   403        22.3889k   -106.7769      4.5831u   -100.9738 
   404        22.4444k   -105.0432      5.5955u    -77.1083 
   405        22.5000k   -106.9244      4.5059u   -104.4294 
   406        22.5556k   -103.9100      6.3753u    -76.5002 
   407        22.6111k   -107.0777      4.4271u   -107.8489 
   408        22.6667k   -111.8782      2.5474u    101.4080 
   409        22.7222k   -107.2368      4.3467u   -111.2307 
   410        22.7778k    -96.7565     14.5269u   -116.5547 
   411        22.8333k   -107.4019      4.2648u   -114.5733 
   412        22.8889k    -81.4554     84.5723u   -145.7282 
   413        22.9444k   -107.5733      4.1815u   -117.8753 
   414        23.0000k    -78.4825    119.0903u     -1.9419 
   415        23.0556k   -107.7508      4.0969u   -121.1350 
   416        23.1111k    -93.1475     22.0102u    179.6056 
   417        23.1667k   -107.9348      4.0111u   -124.3508 
   418        23.2222k   -121.3208    858.9339n   -128.5937 
   419        23.2778k   -108.1251      3.9241u   -127.5215 
   420        23.3333k   -107.1951      4.3676u   -144.0691 
   421        23.3889k   -108.3220      3.8362u   -130.6457 
   422        23.4444k   -112.0272      2.5040u    177.1215 
   423        23.5000k   -108.5254      3.7474u   -133.7221 
   424        23.5556k   -113.1811      2.1925u   -142.8016 
   425        23.6111k   -108.7354      3.6579u   -136.7494 
   426        23.6667k   -103.7958      6.4597u   -177.7437 
   427        23.7222k   -108.9522      3.5677u   -139.7260 
   428        23.7778k    -97.0911     13.9780u    -43.2789 
   429        23.8333k   -109.1759      3.4770u   -142.6502 
   430        23.8889k    -81.0662     88.4481u     23.6454 
   431        23.9444k   -109.4065      3.3859u   -145.5200 
   432        24.0000k    -76.2435    154.1080u     -1.3631 
   433        24.0556k   -109.6442      3.2945u   -148.3330 
   434        24.1111k    -93.9963     19.9610u   -115.6685 
   435        24.1667k   -109.8889      3.2030u   -151.0869 
   436        24.2222k   -118.8374      1.1432u    120.6786 
   437        24.2778k   -110.1407      3.1115u   -153.7793 
   438        24.3333k   -106.4081      4.7819u   -116.1964 
   439        24.3889k   -110.3996      3.0201u   -156.4075 
   440        24.4444k   -106.2033      4.8959u   -162.9816 
   441        24.5000k   -110.6656      2.9290u   -158.9690 
   442        24.5556k   -124.3805    603.9135n   -127.0386 
   443        24.6111k   -110.9386      2.8384u   -161.4605 
   444        24.6667k   -102.2400      7.7268u   -159.1267 
   445        24.7222k   -111.2187      2.7483u   -163.8789 
   446        24.7778k    -99.8634     10.1585u     95.5469 
   447        24.8333k   -111.5057      2.6590u   -166.2203 
   448        24.8889k    -84.9497     56.5609u   -156.4084 
   449        24.9444k   -111.7996      2.5705u   -168.4807 
   450        25.0000k    -72.6816    232.2319u     45.0062 
   451        25.0556k   -112.1000      2.4831u   -170.6560 
   452        25.1111k   -102.5801      7.4301u     -3.6262 
   453        25.1667k   -112.4066      2.3970u   -172.7422 
   454        25.2222k   -104.1407      6.2082u     91.3930 
   455        25.2778k   -112.7191      2.3123u   -174.7353 
   456        25.3333k   -120.7119    921.3071n    -41.6034 
   457        25.3889k   -113.0372      2.2292u   -176.6317 
   458        25.4444k   -117.7965      1.2888u   -173.9515 
   459        25.5000k   -113.3603      2.1478u   -178.4275 
   460        25.5556k   -113.6780      2.0706u     69.8290 
   461        25.6111k   -113.6881      2.0682u    179.8816 
   462        25.6667k   -104.7980      5.7557u   -102.3460 
   463        25.7222k   -114.0202      1.9906u    178.3001 
   464        25.7778k   -111.3989      2.6919u     92.4356 
   465        25.8333k   -114.3561      1.9151u    176.8333 
   466        25.8889k    -75.0168    177.4851u    -15.6581 
   467        25.9444k   -114.6949      1.8419u    175.4869 
   468        26.0000k    -73.0290    223.1266u    123.8175 
   469        26.0556k   -115.0357      1.7710u    174.2662 
   470        26.1111k   -105.0713      5.5774u   -176.6962 
   471        26.1667k   -115.3776      1.7026u    173.1764 
   472        26.2222k   -102.4689      7.5258u   -170.4272 
   473        26.2778k   -115.7193      1.6370u    172.2216 
   474        26.3333k   -115.2905      1.7198u     70.1628 
   475        26.3889k   -116.0594      1.5741u    171.4052 
   476        26.4444k   -116.8990      1.4291u    140.3798 
   477        26.5000k   -116.3967      1.5141u    170.7300 
   478        26.5556k   -106.9140      4.5113u    101.9112 
   479        26.6111k   -116.7298      1.4572u    170.1986 
   480        26.6667k   -111.7931      2.5724u    -43.4731 
   481        26.7222k   -117.0570      1.4033u    169.8127 
   482        26.7778k   -102.6060      7.4080u     69.7200 
   483        26.8333k   -117.3768      1.3526u    169.5738 
   484        26.8889k    -77.7565    129.4716u     45.8025 
   485        26.9444k   -117.6874      1.3051u    169.4821 
   486        27.0000k    -78.9648    112.6571u   -129.7491 
   487        27.0556k   -117.9868      1.2608u    169.5362 
   488        27.1111k    -94.4826     18.8743u     -5.3364 
   489        27.1667k   -118.2731      1.2200u    169.7330 
   490        27.2222k   -104.7971      5.7563u    -74.1473 
   491        27.2778k   -118.5444      1.1824u    170.0677 
   492        27.3333k   -112.3537      2.4117u    129.4826 
   493        27.3889k   -118.7992      1.1483u    170.5346 
   494        27.4444k   -115.1779      1.7422u   -115.2113 
   495        27.5000k   -119.0358      1.1174u    171.1273 
   496        27.5556k   -107.3262      4.3022u   -156.2447 
   497        27.6111k   -119.2525      1.0899u    171.8396 
   498        27.6667k   -108.6560      3.6915u     16.2819 
   499        27.7222k   -119.4478      1.0656u    172.6645 
   500        27.7778k   -101.4064      8.5051u    159.5867 
   501        27.8333k   -119.6198      1.0447u    173.5940 
   502        27.8889k    -81.2593     86.5042u     97.4056 
   503        27.9444k   -119.7668      1.0272u    174.6182 
   504        28.0000k   -115.6196      1.6559u     66.2152 
   505        28.0556k   -119.8868      1.0131u    175.7243 
   506        28.1111k    -94.4015     19.0512u     78.5067 
   507        28.1667k   -119.9783      1.0025u    176.8968 
   508        28.2222k   -107.3391      4.2958u    -53.3577 
   509        28.2778k   -120.0401    995.3995n    178.1182 
   510        28.3333k   -114.3034      1.9268u     44.0090 
   511        28.3889k   -120.0711    991.8453n    179.3694 
   512        28.4444k   -103.2273      6.8966u      0.     

 fourier components of transient response v(6)
 dc component = -0.00522368
 
 harmonic frequency fourier   normalized phase     normalized  
 no       (hz)      component component  (deg)     phase (deg) 
 1        1.00000k  1.81365   1.00000    -83.8675m 0.          
 2        2.00000k  49.7260m  27.4177m   -89.6221  -89.5382    
 3        3.00000k  41.9813m  23.1474m   -1.51632  -1.43245    
 4        4.00000k  30.9636m  17.0725m   86.9769   87.0608     
 5        5.00000k  20.6896m  11.4077m   174.822   174.906     
 6        6.00000k  11.9895m  6.61068m   -91.6427  -91.5589    
 7        7.00000k  4.68004m  2.58046m   14.6185   14.7024     
 8        8.00000k  2.40129m  1.32401m   -114.510  -114.426    
 9        9.00000k  4.48849m  2.47484m   -8.27743  -8.19356    
 
 total harmonic distortion =   4.20402  percent

          ***** job concluded
1****** HSPICE -- D-2010.03-SP1 32-BIT (May 26 2010) winnt ******               
 ******  
 lab4 - arsalan firoozi 97102225

  ******  job statistics summary tnom=  25.000 temp=  25.000 *****

  ******  HSPICE Threads Information  ******

  Command Line Threads Count                  :     1
  Available CPU Count                         :     8
  Actual Model Evaluation(Load) Threads Count :     1
  Actual Solver Threads Count                 :     1


  ******  Circuit Statistics  ******
  # nodes       =       9 # elements   =      13
  # resistors   =       5 # capacitors =       0 # inductors   =       0
  # mutual_inds =       0 # vccs       =       0 # vcvs        =       0
  # cccs        =       0 # ccvs       =       0 # volt_srcs   =       3
  # curr_srcs   =       2 # diodes     =       0 # bjts        =       3
  # jfets       =       0 # mosfets    =       0 # U elements  =       0
  # T elements  =       0 # W elements =       0 # B elements  =       0
  # S elements  =       0 # P elements =       0 # va device   =       0


  ******  Runtime Statistics (seconds)  ******

  analysis           time    # points   tot. iter  conv.iter
  op point           0.00           1          10
  ac analysis        0.04         401         401
  transient          0.18    18000001        1712         676 rev=        54
  readin             0.04
  errchk             0.01
  setup              0.02
  output             0.00


           total memory used          174  kbytes
           total cpu time            0.33 seconds
           total elapsed time        0.37 seconds
           job started at     10:11:35 12/23/2020
           job ended   at     10:11:35 12/23/2020


  lic: Release hspice token(s) 
