 ****** HSPICE -- D-2010.03-SP1 32-BIT (May 26 2010) winnt ******               
  Copyright (C) 2010 Synopsys, Inc. All Rights Reserved.                        
  Unpublished-rights reserved under US copyright laws.
  This program is protected by law and is subject to the 
  terms and conditions of the license agreement from Synopsys.
  Use of this program is your acceptance to be bound by the 
  license agreement. HSPICE is the trademark of Synopsys, Inc.
  Input File: c:\users\personal account\desktop\sim2\q1_c.sp                    
  lic:  
  lic: FLEXlm: v8.5b 
  lic: USER:   Personal Account     HOSTNAME: Personal-Account 
  lic: HOSTID: "8c164510c74c 74e5f9801d02 00ff2d13c27d 74e5f9801cfe 74e5f9801cff
  
  lic: Using FLEXlm license file: 
  lic: 27000@elena 
  lic: Checkout 1 hspice 
  lic: License/Maintenance for hspice will expire on 31-dec-2020/2007.9 
  lic: NODE LOCKED license on hostid "8c164510c74c 74e5f9801d02 00ff2d13c27d 74e
 5
  lic:   
 Init: read install configuration file: C:\synopsys\Hspice_D-2010.03-SP1\meta.cfg
1****** HSPICE -- D-2010.03-SP1 32-BIT (May 26 2010) winnt ******               
 ******  
 lab4 - arsalan firoozi 97102225

  ******  bjt   model parameters tnom=  25.000 temp=  25.000 *****

 ************************************************************************
 *** bjt model parameters   model name:   0:mynpn    model type:npn   ***
 ************************************************************************

     names  values   units     names  values   units     names  values   units
     -----  ------   -----     -----  ------   -----     -----  ------   -----

   1*** basic dc parameters ***
    level=   1.00                bf= 100.00                br=   1.00         
      brs=   0.                bulk=  gnd                  is= 1.0e-16 amps   
      iss=   0.    amps          nf=   1.00                nr=   1.00         
       ns=   1.00               ibe=   0.    amps         ibc=   0.    amps   
     subs=   1.00             expli=   0.    amps   

   2*** low current beta degradation effect parameters ***
      isc=   0.    amps         ise=   0.    amps          nc=   2.00         
       ne=   1.50         

   3*** base width modulation parameters ***
      vaf= 150.00  volts        var=   0.    volts  

   4*** high current beta degradation effect parameters ***
      ikf=   0.    amps         nkf= 500.00m              ikr=   0.    amps   

   5*** parasitic resistor parameters ***
      irb=   0.    amps          rb=   0.    ohms         rbm=   0.    ohms   
       re=   0.    ohms          rc=   0.    ohms         rcc=   0.    ohms   
       vo=   0.    volts      gamma=   0.           

   6*** junction capacitor parameters ***
     cbcp=   0.    farad       cbep=   0.    farad       ccsp=   0.    farad  
      cjc=   2.00p farad        cje=   2.00p farad        cjs=   2.50p farad  
       fc= 500.00m              mjc= 500.00m              mje= 500.00m        
      mjs= 500.00m              vjc= 750.00m volts        vje= 750.00m volts  
      vjs= 750.00m volts       xcjc=   1.00               qco=   0.    coul   

   7*** transit time parameters ***
      itf=   0.    amps         ptf=   0.    deg k         tf= 100.00p secs   
       tr=   0.    secs         vtf=   0.                 xtf=   0.           

   8*** temperature compensation parameters ***
     tlev=   0.               tlevc=   0.                tre1=   0.    /deg   
     tre2=   0.    /deg2       trb1=   0.    /deg        trc1=   0.    /deg   
     trb2=   0.    /deg2       trm1=   0.    /deg         xtb=   0.           
     trm2=   0.    /deg2        xti=   3.00               cte=   0.    /deg   
      ctc=   0.    /deg         cts=   0.    /deg        trc2=   0.    /deg2  
     tref=  25.00   deg c       bex=   2.42              bexv=   1.90         

   9*** noise parameters ***
       kf=   0.                  af=   1.00         
  **info** (c:\users\personal account\desktop\sim2\q1_c.sp:11) DC voltage reset to initial transient source value              in source        0:vid                 new dc=  0.0000D+00
 
      
 *****************************************************************
 ******  option summary
 ******
 runlvl  = 3         bypass  = 2         
1****** HSPICE -- D-2010.03-SP1 32-BIT (May 26 2010) winnt ******               
 ******  
 lab4 - arsalan firoozi 97102225

  ******  operating point information tnom=  25.000 temp=  25.000 *****
 ***** operating point status is all       simulation time is     0.     
    node    =voltage      node    =voltage      node    =voltage

 +0:1       =-256.1992u 0:2       =-752.1269m 0:3       =   0.     
 +0:4       = 253.7842m 0:5       =  -3.9881m 0:6       =-552.9932m
 +0:100     =  10.0000  0:200     = -10.0000 


 ****  voltage sources

 subckt                                   
 element  0:vcc      0:vee      0:vid     
  volts     10.0000   -10.0000     0.     
  current   -5.6586m    6.0000m   -5.1240u
  power     56.5865m   60.0000m    0.     

     total voltage source power dissipation=  116.5865m       watts



 ***** current sources

 subckt                        
 element  0:i1       0:i2      
  volts      9.2479     9.4470 
  current    1.0000m    5.0000m
  power     -9.2479m  -47.2350m


     total current source power dissipation= -56.4829m       watts

 **** resistors

 subckt                                                         
 element  0:r1       0:r2       0:r5       0:r3e      0:r4e     
  r value   20.0000k   50.0000     2.0000k   10.0000k  900.0000 
  v drop     9.7462   256.1992u -552.9932m -552.9932m   -3.9881m
  current  487.3108u    5.1240u -276.4966u  -55.2993u   -4.4312u
  power      4.7494m    1.3128n  152.9008u   30.5802u   17.6722n


 **** bipolar junction transistors


 subckt                                   
 element  0:q1       0:q2       0:q3      
 model    0:mynpn    0:mynpn    0:mynpn   
  ib         5.1240u    4.4312u   43.4262u
  ic       546.5601u  443.8846u    4.6248m
  vbe      751.8707m  748.1388m  806.7774m
  vce       10.7521     1.0059    10.5530 
  vbc      -10.0003  -257.7723m   -9.7462 
  vs       -10.0000  -253.7842m  -10.0000 
  power      5.8805m  449.8236u   48.8403m
  betad    106.6668   100.1718   106.4975 
  gm        21.2703m   17.2743m  179.9806m
  rpi        5.0140k    5.7979k  591.6212 
  rx         0.         0.         0.     
  ro       292.7404k  338.5064k   34.5414k
  cpi        5.1299p    4.7252p   21.0767p
  cmu      528.2642f    1.7254p  534.6188f
  cbx        0.         0.         0.     
  ccs      660.3382f    2.1610p  660.3382f
  betaac   106.6497   100.1547   106.4803 
  ft       598.3019x  426.2068x    1.3255g



1****** HSPICE -- D-2010.03-SP1 32-BIT (May 26 2010) winnt ******               
 ******  
 lab4 - arsalan firoozi 97102225

  ******  fft analysis tnom=  25.000 temp=  25.000 *****
 fft components of transient response v(6)

 Window: Rectangular     

 DC: ON
 First Harmonic:   55.5556       
 Start Freq:   55.5556       
 Stop  Freq:   28.4444k      

 dc component: mag(dB)=  -7.349E+00  mag=   4.291E-01  phase=   0.000E+00

 frequency    frequency    fft_mag     fft_mag
    fft_phase
   index        (hz)        (dB)                    (deg)

     1        55.5556     -89.8800     32.0628u    135.6352m
     2       111.1111     -61.0588    885.2349u   -107.2842 
     3       166.6667     -89.8855     32.0424u    421.7709m
     4       222.2222     -76.1124    156.4516u    -43.6050 
     5       277.7778     -89.8935     32.0130u    741.8368m
     6       333.3333     -86.2909     48.4678u     15.9165 
     7       388.8889     -89.9005     31.9872u      1.0947 
     8       444.4444     -91.9659     25.2178u     38.9143 
     9       500.0000     -89.9048     31.9713u      1.4674 
    10       555.5556     -88.2336     38.7543u     85.2143 
    11       611.1111     -89.9069     31.9636u      1.8491 
    12       666.6667     -84.4574     59.8592u    173.5069 
    13       722.2222     -89.9080     31.9593u      2.2395 
    14       777.7778     -85.1602     55.2067u   -102.4988 
    15       833.3333     -89.9087     31.9571u      2.6496 
    16       888.8889     -81.1265     87.8361u     79.4979 
    17       944.4444     -89.9068     31.9638u      3.0913 
    18         1.0000k      0.          1.0000     -90.0124 
    19         1.0556k    -89.8992     31.9919u      3.5611 
    20         1.1111k    -79.4048    107.0929u    -19.7333 
    21         1.1667k    -89.8840     32.0480u      4.0382 
    22         1.2222k    -82.8419     72.0950u     97.8629 
    23         1.2778k    -89.8621     32.1289u      4.5028 
    24         1.3333k    -84.8147     57.4466u    173.4201 
    25         1.3889k    -89.8355     32.2273u      4.9474 
    26         1.4444k    -89.6238     33.0226u    -84.5395 
    27         1.5000k    -89.8056     32.3385u      5.3732 
    28         1.5556k    -94.2614     19.3611u    -19.1152 
    29         1.6111k    -89.7728     32.4607u      5.7820 
    30         1.6667k    -86.5772     46.8966u    -10.5850 
    31         1.7222k    -89.7374     32.5934u      6.1734 
    32         1.7778k    -75.2838    172.1110u     46.8781 
    33         1.8333k    -89.6997     32.7351u      6.5450 
    34         1.8889k    -60.2828    967.9670u    103.2926 
    35         1.9444k    -89.6607     32.8826u      6.8948 
    36         2.0000k    -16.9103    142.7206m   -179.8222 
    37         2.0556k    -89.6215     33.0312u      7.2264 
    38         2.1111k    -61.6590    826.1346u   -108.2103 
    39         2.1667k    -89.5827     33.1793u      7.5498 
    40         2.2222k    -76.7979    144.5795u    -38.5553 
    41         2.2778k    -89.5431     33.3309u      7.8721 
    42         2.3333k    -84.9465     56.5816u     16.7484 
    43         2.3889k    -89.5014     33.4910u      8.1910 
    44         2.4444k    -89.4298     33.7683u     47.4559 
    45         2.5000k    -89.4576     33.6603u      8.4984 
    46         2.5556k    -86.9045     45.1624u     77.0585 
    47         2.6111k    -89.4127     33.8350u      8.7903 
    48         2.6667k    -84.5382     59.3045u    157.7799 
    49         2.7222k    -89.3677     34.0107u      9.0711 
    50         2.7778k    -91.0569     27.9998u    -92.7090 
    51         2.8333k    -89.3227     34.1874u      9.3511 
    52         2.8889k    -78.3210    121.3250u    113.8049 
    53         2.9444k    -89.2761     34.3713u      9.6374 
    54         3.0000k    -11.4686    267.0349m    -90.1505 
    55         3.0556k    -89.2257     34.5713u      9.9246 
    56         3.1111k    -75.2258    173.2648u      2.9099 
    57         3.1667k    -89.1709     34.7900u     10.1962 
    58         3.2222k    -81.8403     80.9070u     88.0185 
    59         3.2778k    -89.1134     35.0213u     10.4388 
    60         3.3333k    -85.9046     50.6721u    164.8616 
    61         3.3889k    -89.0554     35.2559u     10.6520 
    62         3.4444k    -90.8300     28.7408u    -69.6617 
    63         3.5000k    -88.9983     35.4882u     10.8450 
    64         3.5556k    -94.0787     19.7728u     -1.7382 
    65         3.6111k    -88.9424     35.7175u     11.0284 
    66         3.6667k    -84.9595     56.4968u     -7.0067 
    67         3.7222k    -88.8867     35.9472u     11.2103 
    68         3.7778k    -74.4816    188.7649u     44.3080 
    69         3.8333k    -88.8299     36.1829u     11.3923 
    70         3.8889k    -59.5953      1.0477m     97.9952 
    71         3.9444k    -88.7711     36.4289u     11.5696 
    72         4.0000k    -18.8371    114.3258m   -179.8083 
    73         4.0556k    -88.7103     36.6848u     11.7354 
    74         4.1111k    -62.0572    789.1140u   -105.9260 
    75         4.1667k    -88.6481     36.9484u     11.8893 
    76         4.2222k    -77.1935    138.1417u    -35.3776 
    77         4.2778k    -88.5844     37.2203u     12.0342 
    78         4.3333k    -83.7222     65.1460u     11.9446 
    79         4.3889k    -88.5186     37.5036u     12.1694 
    80         4.4444k    -87.8658     40.4308u     45.0225 
    81         4.5000k    -88.4502     37.8001u     12.2905 
    82         4.5556k    -85.7368     51.6605u     65.5551 
    83         4.6111k    -88.3793     38.1098u     12.3936 
    84         4.6667k    -85.2558     54.6022u    145.6577 
    85         4.7222k    -88.3058     38.4335u     12.4765 
    86         4.7778k    -96.8709     14.3369u    -24.0196 
    87         4.8333k    -88.2294     38.7729u     12.5346 
    88         4.8889k    -77.3471    135.7211u    149.1114 
    89         4.9444k    -88.1500     39.1289u     12.5585 
    90         5.0000k    -18.8226    114.5172m    -90.5556 
    91         5.0556k    -88.0686     39.4977u     12.5365 
    92         5.1111k    -73.7720    204.8328u      7.4031 
    93         5.1667k    -87.9871     39.8699u     12.4598 
    94         5.2222k    -81.2736     86.3612u     77.3079 
    95         5.2778k    -87.9085     40.2323u     12.3285 
    96         5.3333k    -87.5935     41.7181u    162.7823 
    97         5.3889k    -87.8352     40.5734u     12.1531 
    98         5.4444k    -90.3830     30.2587u    -47.6287 
    99         5.5000k    -87.7682     40.8875u     11.9494 
   100         5.5556k    -92.4801     23.7681u     -4.1615 
   101         5.6111k    -87.7074     41.1746u     11.7315 
   102         5.6667k    -82.8630     71.9200u     -9.8303 
   103         5.7222k    -87.6520     41.4381u     11.5084 
   104         5.7778k    -73.8547    202.8915u     37.3562 
   105         5.8333k    -87.6013     41.6808u     11.2840 
   106         5.8889k    -58.9012      1.1349m     94.3780 
   107         5.9444k    -87.5550     41.9033u     11.0606 
   108         6.0000k    -21.7795     81.4756m   -179.9862 
   109         6.0556k    -87.5135     42.1041u     10.8437 
   110         6.1111k    -62.5166    748.4613u   -102.1032 
   111         6.1667k    -87.4765     42.2838u     10.6447 
   112         6.2222k    -77.3849    135.1310u    -35.3871 
   113         6.2778k    -87.4425     42.4498u     10.4754 
   114         6.3333k    -83.0391     70.4763u      4.0339 
   115         6.3889k    -87.4090     42.6140u     10.3403 
   116         6.4444k    -87.1642     43.8319u     33.0861 
   117         6.5000k    -87.3736     42.7880u     10.2357 
   118         6.5556k    -85.2554     54.6049u     53.9464 
   119         6.6111k    -87.3345     42.9807u     10.1538 
   120         6.6667k    -87.0457     44.4341u    143.7197 
   121         6.7222k    -87.2904     43.1996u     10.0844 
   122         6.7778k    -94.0298     19.8844u     14.5822 
   123         6.8333k    -87.2401     43.4506u     10.0134 
   124         6.8889k    -73.7637    205.0280u   -171.7588 
   125         6.9444k    -87.1834     43.7352u      9.9228 
   126         7.0000k    -25.1794     55.0846m    -91.2650 
   127         7.0556k    -87.1214     44.0485u      9.7949 
   128         7.1111k    -73.8699    202.5375u    313.3217m
   129         7.1667k    -87.0562     44.3804u      9.6170 
   130         7.2222k    -80.9822     89.3082u     68.2165 
   131         7.2778k    -86.9904     44.7175u      9.3836 
   132         7.3333k    -89.2026     34.6633u    169.8776 
   133         7.3889k    -86.9267     45.0469u      9.0974 
   134         7.4444k    -89.0481     35.2855u    -38.0318 
   135         7.5000k    -86.8666     45.3595u      8.7665 
   136         7.5556k    -91.5198     26.5468u    -20.3540 
   137         7.6111k    -86.8111     45.6507u      8.3985 
   138         7.6667k    -81.8396     80.9132u    -16.7525 
   139         7.7222k    -86.7605     45.9174u      7.9978 
   140         7.7778k    -73.4066    213.6329u     30.0910 
   141         7.8333k    -86.7157     46.1546u      7.5668 
   142         7.8889k    -58.0772      1.2478m     94.4629 
   143         7.9444k    -86.6783     46.3537u      7.1105 
   144         8.0000k    -25.0696     55.7854m    179.5972 
   145         8.0556k    -86.6499     46.5056u      6.6414 
   146         8.1111k    -63.1504    695.7957u    -99.7180 
   147         8.1667k    -86.6311     46.6063u      6.1795 
   148         8.2222k    -77.4966    133.4044u    -38.4211 
   149         8.2778k    -86.6208     46.6614u      5.7471 
   150         8.3333k    -82.9905     70.8724u     -4.9299 
   151         8.3889k    -86.6165     46.6848u      5.3594 
   152         8.4444k    -86.7365     46.0441u     16.7243 
   153         8.5000k    -86.6149     46.6936u      5.0223 
   154         8.5556k    -85.4847     53.1819u     44.8476 
   155         8.6111k    -86.6130     46.7037u      4.7330 
   156         8.6667k    -89.0654     35.2150u    150.4855 
   157         8.7222k    -86.6084     46.7285u      4.4824 
   158         8.7778k    -95.6735     16.4561u     31.5173 
   159         8.8333k    -86.5993     46.7774u      4.2561 
   160         8.8889k    -69.8856    320.4213u   -156.0970 
   161         8.9444k    -86.5852     46.8530u      4.0372 
   162         9.0000k    -30.7850     28.8903m    -92.0879 
   163         9.0556k    -86.5668     46.9524u      3.8124 
   164         9.1111k    -73.8817    202.2614u    -13.4551 
   165         9.1667k    -86.5449     47.0709u      3.5740 
   166         9.2222k    -81.1071     88.0329u     62.0825 
   167         9.2778k    -86.5201     47.2057u      3.3162 
   168         9.3333k    -89.5290     33.3848u   -177.8138 
   169         9.3889k    -86.4929     47.3539u      3.0327 
   170         9.4444k    -88.5838     37.2227u    -42.2192 
   171         9.5000k    -86.4639     47.5119u      2.7160 
   172         9.5556k    -91.0645     27.9754u    -43.0878 
   173         9.6111k    -86.4345     47.6734u      2.3573 
   174         9.6667k    -81.7969     81.3123u    -26.9245 
   175         9.7222k    -86.4065     47.8272u      1.9483 
   176         9.7778k    -73.1282    220.5912u     24.2536 
   177         9.8333k    -86.3832     47.9555u      1.4866 
   178         9.8889k    -57.1950      1.3812m     97.5131 
   179         9.9444k    -86.3681     48.0391u    982.4165m
   180        10.0000k    -28.4260     37.9053m    178.9550 
   181        10.0556k    -86.3634     48.0653u    458.3326m
   182        10.1111k    -63.8490    642.0251u   -100.4981 
   183        10.1667k    -86.3691     48.0336u    -60.1362m
   184        10.2222k    -77.7232    129.9691u    -43.9698 
   185        10.2778k    -86.3837     47.9529u   -553.5261m
   186        10.3333k    -83.6315     65.8302u    -13.9823 
   187        10.3889k    -86.4051     47.8350u     -1.0110 
   188        10.4444k    -86.5381     47.1080u      3.3944 
   189        10.5000k    -86.4313     47.6906u     -1.4275 
   190        10.5556k    -86.3006     48.4136u     40.8782 
   191        10.6111k    -86.4608     47.5290u     -1.8004 
   192        10.6667k    -89.2042     34.6570u    154.1916 
   193        10.7222k    -86.4919     47.3594u     -2.1275 
   194        10.7778k    -99.5549     10.5258u    110.1295 
   195        10.8333k    -86.5225     47.1928u     -2.4087 
   196        10.8889k    -67.5667    418.4683u   -155.6790 
   197        10.9444k    -86.5505     47.0408u     -2.6495 
   198        11.0000k    -35.5047     16.7790m    -92.5198 
   199        11.0556k    -86.5743     46.9121u     -2.8614 
   200        11.1111k    -73.7817    204.6043u    -24.0019 
   201        11.1667k    -86.5931     46.8105u     -3.0578 
   202        11.2222k    -81.6843     82.3726u     61.1508 
   203        11.2778k    -86.6070     46.7358u     -3.2510 
   204        11.3333k    -88.6897     36.7718u   -173.0501 
   205        11.3889k    -86.6161     46.6867u     -3.4512 
   206        11.4444k    -89.0932     35.1025u    -54.3624 
   207        11.5000k    -86.6208     46.6615u     -3.6690 
   208        11.5556k    -90.7873     28.8826u    -66.5867 
   209        11.6111k    -86.6217     46.6567u     -3.9174 
   210        11.6667k    -81.9708     79.7001u    -37.4069 
   211        11.7222k    -86.6205     46.6630u     -4.2121 
   212        11.7778k    -72.9686    224.6817u     21.5033 
   213        11.8333k    -86.6208     46.6618u     -4.5635 
   214        11.8889k    -56.3730      1.5183m    101.0514 
   215        11.9444k    -86.6269     46.6291u     -4.9674 
   216        12.0000k    -31.6832     26.0520m    178.2377 
   217        12.0556k    -86.6422     46.5469u     -5.4016 
   218        12.1111k    -64.6537    585.2114u   -104.1556 
   219        12.1667k    -86.6674     46.4118u     -5.8374 
   220        12.2222k    -78.4698    119.2643u    -49.6813 
   221        12.2778k    -86.7010     46.2325u     -6.2533 
   222        12.3333k    -84.7991     57.5500u    -21.7503 
   223        12.3889k    -86.7409     46.0208u     -6.6395 
   224        12.4444k    -86.9149     45.1084u     -2.5048 
   225        12.5000k    -86.7855     45.7852u     -6.9935 
   226        12.5556k    -87.2971     43.1662u     44.3080 
   227        12.6111k    -86.8341     45.5297u     -7.3132 
   228        12.6667k    -87.3932     42.6915u    148.2478 
   229        12.7222k    -86.8862     45.2576u     -7.5917 
   230        12.7778k    -90.0100     31.5863u    156.5133 
   231        12.8333k    -86.9401     44.9772u     -7.8185 
   232        12.8889k    -65.9371    504.8279u   -164.2211 
   233        12.9444k    -86.9930     44.7043u     -7.9881 
   234        13.0000k    -39.2472     10.9054m    -91.8675 
   235        13.0556k    -87.0413     44.4567u     -8.1077 
   236        13.1111k    -74.1694    195.6734u    -24.6729 
   237        13.1667k    -87.0826     44.2456u     -8.1961 
   238        13.2222k    -82.0422     79.0476u     63.0213 
   239        13.2778k    -87.1165     44.0733u     -8.2741 
   240        13.3333k    -88.1692     39.0428u   -179.1853 
   241        13.3889k    -87.1434     43.9370u     -8.3574 
   242        13.4444k    -90.2516     30.7200u    -66.7826 
   243        13.5000k    -87.1637     43.8341u     -8.4586 
   244        13.5556k    -91.0292     28.0892u    -85.3126 
   245        13.6111k    -87.1780     43.7623u     -8.5928 
   246        13.6667k    -81.9080     80.2790u    -42.0475 
   247        13.7222k    -87.1875     43.7145u     -8.7804 
   248        13.7778k    -72.8946    226.6043u     23.5979 
   249        13.8333k    -87.1957     43.6731u     -9.0415 
   250        13.8889k    -55.6584      1.6485m    103.1096 
   251        13.9444k    -87.2084     43.6094u     -9.3819 
   252        14.0000k    -34.7759     18.2476m    177.9247 
   253        14.0556k    -87.2310     43.4959u     -9.7824 
   254        14.1111k    -65.7153    517.8840u   -107.8233 
   255        14.1667k    -87.2662     43.3204u    -10.2074 
   256        14.2222k    -79.7424    103.0104u    -54.8923 
   257        14.2778k    -87.3127     43.0890u    -10.6252 
   258        14.3333k    -85.7428     51.6247u    -28.5389 
   259        14.3889k    -87.3680     42.8154u    -11.0215 
   260        14.4444k    -87.5333     42.0084u     -2.2252 
   261        14.5000k    -87.4305     42.5085u    -11.3964 
   262        14.5556k    -87.7956     40.7586u     50.6748 
   263        14.6111k    -87.5004     42.1677u    -11.7523 
   264        14.6667k    -85.7288     51.7080u    141.9491 
   265        14.7222k    -87.5795     41.7857u    -12.0808 
   266        14.7778k    -85.5461     52.8072u    156.0823 
   267        14.8333k    -87.6686     41.3590u    -12.3559 
   268        14.8889k    -64.0315    628.6729u   -176.5959 
   269        14.9444k    -87.7654     40.9006u    -12.5429 
   270        15.0000k    -42.0125      7.9318m    -90.6766 
   271        15.0556k    -87.8636     40.4409u    -12.6210 
   272        15.1111k    -74.5049    188.2585u    -16.8307 
   273        15.1667k    -87.9559     40.0134u    -12.6002 
   274        15.2222k    -81.7604     81.6541u     63.6858 
   275        15.2778k    -88.0378     39.6379u    -12.5147 
   276        15.3333k    -87.6291     41.5475u    169.1808 
   277        15.3889k    -88.1085     39.3163u    -12.4015 
   278        15.4444k    -92.0275     25.0394u    -77.0878 
   279        15.5000k    -88.1696     39.0410u    -12.2864 
   280        15.5556k    -91.6646     26.1078u   -103.8364 
   281        15.6111k    -88.2225     38.8037u    -12.1849 
   282        15.6667k    -81.7995     81.2876u    -41.0425 
   283        15.7222k    -88.2687     38.5982u    -12.1097 
   284        15.7778k    -72.8898    226.7308u     29.6836 
   285        15.8333k    -88.3095     38.4172u    -12.0764 
   286        15.8889k    -55.0157      1.7751m    102.1830 
   287        15.9444k    -88.3480     38.2472u    -12.1007 
   288        16.0000k    -37.6846     13.0548m    178.3938 
   289        16.0556k    -88.3886     38.0687u    -12.1876 
   290        16.1111k    -67.1798    437.5342u   -108.4434 
   291        16.1667k    -88.4356     37.8634u    -12.3258 
   292        16.2222k    -81.2537     86.5596u    -60.3897 
   293        16.2778k    -88.4913     37.6215u    -12.4948 
   294        16.3333k    -85.9461     50.4305u    -32.1826 
   295        16.3889k    -88.5563     37.3411u    -12.6771 
   296        16.4444k    -87.9304     40.1311u      2.9686 
   297        16.5000k    -88.6309     37.0218u    -12.8628 
   298        16.5556k    -87.3674     42.8184u     56.2377 
   299        16.6111k    -88.7165     36.6587u    -13.0449 
   300        16.6667k    -85.0624     55.8318u    136.3858 
   301        16.7222k    -88.8157     36.2421u    -13.2063 
   302        16.7778k    -83.4852     66.9486u    135.9131 
   303        16.8333k    -88.9306     35.7662u    -13.3097 
   304        16.8889k    -61.8321    809.8339u    174.9283 
   305        16.9444k    -89.0590     35.2412u    -13.3033 
   306        17.0000k    -43.8911      6.3892m    -90.7443 
   307        17.0556k    -89.1936     34.6991u    -13.1464 
   308        17.1111k    -73.8242    203.6067u    -10.6876 
   309        17.1667k    -89.3246     34.1798u    -12.8365 
   310        17.2222k    -80.9270     89.8768u     62.3540 
   311        17.2778k    -89.4446     33.7110u    -12.4075 
   312        17.3333k    -86.7593     45.9233u    159.4525 
   313        17.3889k    -89.5511     33.2999u    -11.9031 
   314        17.4444k    -94.6198     18.5786u    -82.5688 
   315        17.5000k    -89.6454     32.9404u    -11.3529 
   316        17.5556k    -92.1635     24.6503u   -121.3608 
   317        17.6111k    -89.7287     32.6259u    -10.7676 
   318        17.6667k    -81.6824     82.3909u    -37.6454 
   319        17.7222k    -89.8005     32.3573u    -10.1493 
   320        17.7778k    -72.7873    229.4225u     34.1409 
   321        17.8333k    -89.8583     32.1430u     -9.5105 
   322        17.8889k    -54.3978      1.9059m     98.2718 
   323        17.9444k    -89.9001     31.9888u     -8.8857 
   324        18.0000k    -40.3375      9.6189m    179.0920 
   325        18.0556k    -89.9280     31.8861u     -8.3210 
   326        18.1111k    -68.9032    358.7890u   -105.2432 
   327        18.1667k    -89.9486     31.8103u     -7.8472 
   328        18.2222k    -82.5133     74.8745u    -65.5970 
   329        18.2778k    -89.9697     31.7333u     -7.4631 
   330        18.3333k    -85.6585     52.1286u    -29.7462 
   331        18.3889k    -89.9964     31.6359u     -7.1454 
   332        18.4444k    -87.6575     41.4119u     10.4272 
   333        18.5000k    -90.0311     31.5097u     -6.8676 
   334        18.5556k    -86.1872     49.0501u     58.9736 
   335        18.6111k    -90.0751     31.3506u     -6.6095 
   336        18.6667k    -85.5249     52.9362u    129.4835 
   337        18.7222k    -90.1297     31.1539u     -6.3529 
   338        18.7778k    -80.7700     91.5171u    110.4045 
   339        18.8333k    -90.1968     30.9142u     -6.0708 
   340        18.8889k    -59.7747      1.0263m    174.2913 
   341        18.9444k    -90.2764     30.6325u     -5.7225 
   342        19.0000k    -45.1398      5.5336m    -91.9675 
   343        19.0556k    -90.3644     30.3234u     -5.2646 
   344        19.1111k    -72.2772    243.2975u    -13.2439 
   345        19.1667k    -90.4536     30.0136u     -4.6747 
   346        19.2222k    -79.9885    100.1322u     59.2717 
   347        19.2778k    -90.5366     29.7284u     -3.9616 
   348        19.3333k    -86.4724     47.4658u    155.2712 
   349        19.3889k    -90.6088     29.4821u     -3.1528 
   350        19.4444k    -97.3223     13.6108u    -71.6293 
   351        19.5000k    -90.6694     29.2772u     -2.2733 
   352        19.5556k    -92.6721     23.2486u   -129.3514 
   353        19.6111k    -90.7185     29.1121u     -1.3329 
   354        19.6667k    -81.4665     84.4649u    -36.3025 
   355        19.7222k    -90.7549     28.9903u   -329.2311m
   356        19.7778k    -72.6484    233.1210u     32.1104 
   357        19.8333k    -90.7746     28.9247u    736.3070m
   358        19.8889k    -53.6861      2.0687m     93.7466 
   359        19.9444k    -90.7721     28.9332u      1.8369 
   360        20.0000k    -42.6199      7.3961m    179.3418 
   361        20.0556k    -90.7447     29.0245u      2.9156 
   362        20.1111k    -70.1532    310.6991u   -101.6423 
   363        20.1667k    -90.6962     29.1871u      3.9108 
   364        20.2222k    -82.9331     71.3417u    -71.8316 
   365        20.2778k    -90.6348     29.3939u      4.7900 
   366        20.3333k    -85.4849     53.1808u    -25.0802 
   367        20.3889k    -90.5690     29.6177u      5.5586 
   368        20.4444k    -87.2380     43.4611u     13.8197 
   369        20.5000k    -90.5035     29.8416u      6.2434 
   370        20.5556k    -85.2368     54.7221u     59.6216 
   371        20.6111k    -90.4402     30.0601u      6.8737 
   372        20.6667k    -86.6595     46.4542u    122.0375 
   373        20.7222k    -90.3783     30.2750u      7.4698 
   374        20.7778k    -77.8606    127.9295u     99.0941 
   375        20.8333k    -90.3166     30.4908u      8.0407 
   376        20.8889k    -57.9524      1.2658m    179.2510 
   377        20.9444k    -90.2546     30.7095u      8.5860 
   378        21.0000k    -46.1801      4.9091m    -93.1042 
   379        21.0556k    -90.1926     30.9293u      9.1051 
   380        21.1111k    -70.8715    286.0379u    -19.3562 
   381        21.1667k    -90.1318     31.1464u      9.6032 
   382        21.2222k    -79.2266    109.3130u     57.8785 
   383        21.2778k    -90.0728     31.3589u     10.0920 
   384        21.3333k    -87.0937     44.1890u    152.5584 
   385        21.3889k    -90.0149     31.5686u     10.5838 
   386        21.4444k    -98.7511     11.5463u    -40.4717 
   387        21.5000k    -89.9569     31.7801u     11.0890 
   388        21.5556k    -93.9791     20.0006u   -130.5761 
   389        21.6111k    -89.8970     32.0001u     11.6152 
   390        21.6667k    -81.5513     83.6440u    -38.1739 
   391        21.7222k    -89.8326     32.2382u     12.1661 
   392        21.7778k    -72.3410    241.5178u     25.2128 
   393        21.8333k    -89.7604     32.5071u     12.7371 
   394        21.8889k    -52.8985      2.2650m     91.3749 
   395        21.9444k    -89.6776     32.8185u     13.3089 
   396        22.0000k    -44.5241      5.9401m    179.4881 
   397        22.0556k    -89.5834     33.1764u     13.8513 
   398        22.1111k    -70.6199    294.4456u   -102.5206 
   399        22.1667k    -89.4802     33.5731u     14.3376 
   400        22.2222k    -82.5700     74.3876u    -75.9385 
   401        22.2778k    -89.3718     33.9944u     14.7589 
   402        22.3333k    -85.4581     53.3450u    -21.3171 
   403        22.3889k    -89.2615     34.4291u     15.1238 
   404        22.4444k    -86.8198     45.6048u     11.4304 
   405        22.5000k    -89.1499     34.8741u     15.4481 
   406        22.5556k    -84.7145     58.1132u     57.8623 
   407        22.6111k    -89.0359     35.3351u     15.7423 
   408        22.6667k    -87.5760     41.8025u    109.5877 
   409        22.7222k    -88.9169     35.8225u     16.0035 
   410        22.7778k    -75.9388    159.6103u     99.0956 
   411        22.8333k    -88.7913     36.3441u     16.2112 
   412        22.8889k    -56.2293      1.5436m   -174.9335 
   413        22.9444k    -88.6606     36.8953u     16.3355 
   414        23.0000k    -47.4149      4.2585m    -94.5728 
   415        23.0556k    -88.5297     37.4556u     16.3575 
   416        23.1111k    -70.2908    305.8173u    -23.4725 
   417        23.1667k    -88.4044     37.9996u     16.2855 
   418        23.2222k    -78.9460    112.9017u     59.1306 
   419        23.2778k    -88.2883     38.5111u     16.1482 
   420        23.3333k    -88.6992     36.7317u    148.3513 
   421        23.3889k    -88.1812     38.9888u     15.9755 
   422        23.4444k    -98.1203     12.4161u    -11.7967 
   423        23.5000k    -88.0812     39.4405u     15.7842 
   424        23.5556k    -96.2897     15.3291u   -126.3067 
   425        23.6111k    -87.9861     39.8746u     15.5770 
   426        23.6667k    -81.7182     82.0524u    -42.3461 
   427        23.7222k    -87.8951     40.2945u     15.3475 
   428        23.7778k    -71.7937    257.2261u     17.9048 
   429        23.8333k    -87.8092     40.6950u     15.0887 
   430        23.8889k    -52.1879      2.4581m     91.9039 
   431        23.9444k    -87.7306     41.0649u     14.8038 
   432        24.0000k    -46.3542      4.8116m    179.4686 
   433        24.0556k    -87.6610     41.3950u     14.5102 
   434        24.1111k    -70.7982    288.4636u   -106.8038 
   435        24.1667k    -87.6002     41.6861u     14.2321 
   436        24.2222k    -82.2063     77.5688u    -75.8941 
   437        24.2778k    -87.5456     41.9489u     13.9875 
   438        24.3333k    -85.4206     53.5762u    -21.3260 
   439        24.3889k    -87.4942     42.1978u     13.7836 
   440        24.4444k    -86.2163     48.8861u      6.0726 
   441        24.5000k    -87.4432     42.4462u     13.6191 
   442        24.5556k    -84.6540     58.5191u     52.1153 
   443        24.6111k    -87.3903     42.7055u     13.4890 
   444        24.6667k    -87.5390     41.9805u     92.3251 
   445        24.7222k    -87.3334     42.9865u     13.3847 
   446        24.7778k    -74.8735    180.4363u    106.1916 
   447        24.8333k    -87.2705     43.2987u     13.2918 
   448        24.8889k    -54.4035      1.9047m   -171.7157 
   449        24.9444k    -87.2010     43.6467u     13.1901 
   450        25.0000k    -48.7660      3.6450m    -96.8691 
   451        25.0556k    -87.1257     44.0264u     13.0591 
   452        25.1111k    -70.5784    295.8553u    -24.8993 
   453        25.1667k    -87.0471     44.4268u     12.8876 
   454        25.2222k    -79.3853    107.3340u     61.8323 
   455        25.2778k    -86.9671     44.8379u     12.6751 
   456        25.3333k    -90.9846     28.2340u    142.3186 
   457        25.3889k    -86.8866     45.2552u     12.4255 
   458        25.4444k    -98.0726     12.4845u      2.2061 
   459        25.5000k    -86.8056     45.6792u     12.1394 
   460        25.5556k    -97.8784     12.7667u   -119.3098 
   461        25.6111k    -86.7239     46.1111u     11.8099 
   462        25.6667k    -81.6524     82.6763u    -49.1090 
   463        25.7222k    -86.6423     46.5464u     11.4235 
   464        25.7778k    -71.4144    268.7075u     15.1901 
   465        25.8333k    -86.5636     46.9699u     10.9672 
   466        25.8889k    -51.4998      2.6608m     94.2716 
   467        25.9444k    -86.4925     47.3559u     10.4412 
   468        26.0000k    -48.3819      3.8098m    178.1702 
   469        26.0556k    -86.4333     47.6799u      9.8670 
   470        26.1111k    -71.4049    269.0005u   -112.1494 
   471        26.1667k    -86.3874     47.9324u      9.2795 
   472        26.2222k    -82.8633     71.9174u    -73.7828 
   473        26.2778k    -86.3532     48.1218u      8.7095 
   474        26.3333k    -85.4145     53.6138u    -24.5436 
   475        26.3889k    -86.3274     48.2648u      8.1730 
   476        26.4444k    -85.5512     52.7762u      2.6145 
   477        26.5000k    -86.3073     48.3767u      7.6734 
   478        26.5556k    -84.8775     57.0330u     43.2093 
   479        26.6111k    -86.2909     48.4678u      7.2087 
   480        26.6667k    -86.1770     49.1080u     78.4086 
   481        26.7222k    -86.2772     48.5443u      6.7771 
   482        26.7778k    -73.8401    203.2344u    113.9077 
   483        26.8333k    -86.2652     48.6113u      6.3791 
   484        26.8889k    -52.4960      2.3725m   -171.6977 
   485        26.9444k    -86.2536     48.6763u      6.0166 
   486        27.0000k    -49.8873      3.2036m    -98.6560 
   487        27.0556k    -86.2406     48.7495u      5.6886 
   488        27.1111k    -71.1469    277.1133u    -22.6451 
   489        27.1667k    -86.2241     48.8419u      5.3887 
   490        27.2222k    -80.2037     97.6820u     61.8164 
   491        27.2778k    -86.2028     48.9620u      5.1061 
   492        27.3333k    -94.1298     19.6566u    130.7971 
   493        27.3889k    -86.1756     49.1156u      4.8275 
   494        27.4444k    -98.0834     12.4690u      3.6926 
   495        27.5000k    -86.1420     49.3061u      4.5378 
   496        27.5556k    -97.2081     13.7910u   -119.6252 
   497        27.6111k    -86.1019     49.5345u      4.2186 
   498        27.6667k    -81.1301     87.8000u    -56.4871 
   499        27.7222k    -86.0563     49.7950u      3.8476 
   500        27.7778k    -71.3289    271.3646u     17.8674 
   501        27.8333k    -86.0083     50.0708u      3.4029 
   502        27.8889k    -50.7662      2.8953m     97.3729 
   503        27.9444k    -85.9630     50.3326u      2.8752 
   504        28.0000k    -50.4874      2.9897m    174.7133 
   505        28.0556k    -85.9257     50.5494u      2.2767 
   506        28.1111k    -72.5974    234.4938u   -115.8174 
   507        28.1667k    -85.8992     50.7039u      1.6362 
   508        28.2222k    -84.3719     60.4510u    -72.3588 
   509        28.2778k    -85.8832     50.7971u    981.4424m
   510        28.3333k    -85.1759     55.1068u    -32.4913 
   511        28.3889k    -85.8760     50.8396u    326.6236m
   512        28.4444k    -70.3075    305.2274u      0.     

 fourier components of transient response v(6)
 dc component = 2.38794
 
 harmonic frequency fourier   normalized phase     normalized  
 no       (hz)      component component  (deg)     phase (deg) 
 1        1.00000k  5.56515   1.00000    -13.8104m 0.          
 2        2.00000k  794.457m  142.756m   -89.8202  -89.8064    
 3        3.00000k  1.48613   267.043m   -156.460m -142.650m   
 4        4.00000k  636.463m  114.366m   -89.8043  -89.7905    
 5        5.00000k  637.369m  114.529m   -572.458m -558.647m   
 6        6.00000k  453.683m  81.5221m   -89.9811  -89.9673    
 7        7.00000k  306.611m  55.0949m   -1.30594  -1.29213    
 8        8.00000k  310.740m  55.8367m   -90.3999  -90.3861    
 9        9.00000k  160.814m  28.8966m   -2.17235  -2.15853    
 
 total harmonic distortion =   36.2659  percent

          ***** job concluded
1****** HSPICE -- D-2010.03-SP1 32-BIT (May 26 2010) winnt ******               
 ******  
 lab4 - arsalan firoozi 97102225

  ******  job statistics summary tnom=  25.000 temp=  25.000 *****

  ******  HSPICE Threads Information  ******

  Command Line Threads Count                  :     1
  Available CPU Count                         :     8
  Actual Model Evaluation(Load) Threads Count :     1
  Actual Solver Threads Count                 :     1


  ******  Circuit Statistics  ******
  # nodes       =       9 # elements   =      13
  # resistors   =       5 # capacitors =       0 # inductors   =       0
  # mutual_inds =       0 # vccs       =       0 # vcvs        =       0
  # cccs        =       0 # ccvs       =       0 # volt_srcs   =       3
  # curr_srcs   =       2 # diodes     =       0 # bjts        =       3
  # jfets       =       0 # mosfets    =       0 # U elements  =       0
  # T elements  =       0 # W elements =       0 # B elements  =       0
  # S elements  =       0 # P elements =       0 # va device   =       0


  ******  Runtime Statistics (seconds)  ******

  analysis           time    # points   tot. iter  conv.iter
  op point           0.01           1           9
  ac analysis        0.05         401         401
  transient          0.28    18000001        2806        1034 rev=        36
  readin             0.04
  errchk             0.01
  setup              0.01
  output             0.00


           total memory used          174  kbytes
           total cpu time            0.42 seconds
           total elapsed time        0.47 seconds
           job started at     10:15:26 12/23/2020
           job ended   at     10:15:26 12/23/2020


  lic: Release hspice token(s) 
