$DATA1 SOURCE='HSPICE' VERSION='D-2010.03-SP1 32-BIT'
.TITLE 'lab simulation'
 po               pcc              temper           alter#            
    0.2508          -0.4193          25.0000        1                 
